ZINC001423176033
  xtb     04142213543D
xtb: 6.4.1 (afa7bdf)
 44 44  0     0  0            999 V2000
    0.4955   -3.7411   -1.8954 C   0  0  0  0  0  0  0  0  0  0  0  0
    1.2571   -2.7695   -1.1439 N   0  0  0  0  0  0  0  0  0  0  0  0
    1.0902   -1.4515   -1.2678 C   0  0  0  0  0  0  0  0  0  0  0  0
    0.3167   -0.9440   -2.0776 O   0  0  0  0  0  0  0  0  0  0  0  0
    1.9548   -0.6029   -0.3339 C   0  0  0  0  0  0  0  0  0  0  0  0
    3.4373   -0.7423   -0.7035 C   0  0  0  0  0  0  0  0  0  0  0  0
    1.5449    0.7818   -0.4638 N   0  0  0  0  0  0  0  0  0  0  0  0
    1.6502    1.6474    0.6684 C   0  0  0  0  0  0  0  0  0  0  0  0
    1.0834    1.1720    2.0105 C   0  0  0  0  0  0  0  0  0  0  0  0
   -0.2639    0.6519    1.9069 N   0  0  0  0  0  0  0  0  0  0  0  0
   -1.3518    1.4141    2.0475 C   0  0  0  0  0  0  0  0  0  0  0  0
   -1.3266    2.6073    2.3223 O   0  0  0  0  0  0  0  0  0  0  0  0
   -2.6654    0.6212    1.8829 C   0  0  0  0  0  0  0  0  0  0  0  0
   -3.8637    1.4607    2.2960 C   0  0  0  0  0  0  0  0  0  0  0  0
   -2.8368    0.1560    0.5151 N   0  0  0  0  0  0  0  0  0  0  0  0
   -2.2693   -0.9541    0.0226 C   0  0  0  0  0  0  0  0  0  0  0  0
   -2.6927   -1.3448   -1.3635 C   0  0  0  0  0  0  0  0  0  0  0  0
   -1.4484   -1.6083    0.6731 O   0  0  0  0  0  0  0  0  0  0  0  0
    1.5451    3.1122    0.3590 C   0  0  0  0  0  0  0  0  0  0  0  0
    2.8722    2.5264    0.7404 C   0  0  0  0  0  0  0  0  0  0  0  0
    0.0226   -3.2264   -2.7292 H   0  0  0  0  0  0  0  0  0  0  0  0
   -0.2762   -4.1885   -1.2670 H   0  0  0  0  0  0  0  0  0  0  0  0
    1.1587   -4.5175   -2.2712 H   0  0  0  0  0  0  0  0  0  0  0  0
    1.8343   -3.1223   -0.3966 H   0  0  0  0  0  0  0  0  0  0  0  0
    1.8014   -0.9903    0.6867 H   0  0  0  0  0  0  0  0  0  0  0  0
    4.0302   -0.1359   -0.0253 H   0  0  0  0  0  0  0  0  0  0  0  0
    3.5905   -0.3824   -1.7168 H   0  0  0  0  0  0  0  0  0  0  0  0
    3.7659   -1.7747   -0.6361 H   0  0  0  0  0  0  0  0  0  0  0  0
    0.6346    0.8315   -0.9110 H   0  0  0  0  0  0  0  0  0  0  0  0
    1.0530    2.0221    2.6953 H   0  0  0  0  0  0  0  0  0  0  0  0
    1.7158    0.3918    2.4410 H   0  0  0  0  0  0  0  0  0  0  0  0
   -0.3992   -0.3090    1.6002 H   0  0  0  0  0  0  0  0  0  0  0  0
   -2.5793   -0.2714    2.5162 H   0  0  0  0  0  0  0  0  0  0  0  0
   -3.8939    2.3755    1.7094 H   0  0  0  0  0  0  0  0  0  0  0  0
   -4.7843    0.9017    2.1585 H   0  0  0  0  0  0  0  0  0  0  0  0
   -3.7668    1.7393    3.3411 H   0  0  0  0  0  0  0  0  0  0  0  0
   -3.4350    0.7134   -0.0758 H   0  0  0  0  0  0  0  0  0  0  0  0
   -3.5731   -0.8045   -1.6911 H   0  0  0  0  0  0  0  0  0  0  0  0
   -1.8598   -1.1354   -2.0354 H   0  0  0  0  0  0  0  0  0  0  0  0
   -2.8755   -2.4156   -1.3908 H   0  0  0  0  0  0  0  0  0  0  0  0
    1.0242    3.7431    1.0628 H   0  0  0  0  0  0  0  0  0  0  0  0
    1.3987    3.3868   -0.6736 H   0  0  0  0  0  0  0  0  0  0  0  0
    3.2802    2.7575    1.7116 H   0  0  0  0  0  0  0  0  0  0  0  0
    3.6046    2.4185   -0.0425 H   0  0  0  0  0  0  0  0  0  0  0  0
  1  2  1  0  0  0  0
  2  3  1  0  0  0  0
  3  4  2  0  0  0  0
  3  5  1  0  0  0  0
  5  6  1  0  0  0  0
  5  7  1  0  0  0  0
  7  8  1  0  0  0  0
  8  9  1  0  0  0  0
  9 10  1  0  0  0  0
 10 11  1  0  0  0  0
 11 12  2  0  0  0  0
 11 13  1  0  0  0  0
 13 14  1  0  0  0  0
 13 15  1  0  0  0  0
 15 16  1  0  0  0  0
 16 17  1  0  0  0  0
 16 18  2  0  0  0  0
  8 19  1  0  0  0  0
 19 20  1  0  0  0  0
 20  8  1  0  0  0  0
  1 21  1  0  0  0  0
  1 22  1  0  0  0  0
  1 23  1  0  0  0  0
  2 24  1  0  0  0  0
  5 25  1  0  0  0  0
  6 26  1  0  0  0  0
  6 27  1  0  0  0  0
  6 28  1  0  0  0  0
  7 29  1  0  0  0  0
  9 30  1  0  0  0  0
  9 31  1  0  0  0  0
 10 32  1  0  0  0  0
 13 33  1  0  0  0  0
 14 34  1  0  0  0  0
 14 35  1  0  0  0  0
 14 36  1  0  0  0  0
 15 37  1  0  0  0  0
 17 38  1  0  0  0  0
 17 39  1  0  0  0  0
 17 40  1  0  0  0  0
 19 41  1  0  0  0  0
 19 42  1  0  0  0  0
 20 43  1  0  0  0  0
 20 44  1  0  0  0  0
M  END
> <total energy / Eh>
    -64.024230797108

> <gradient norm / Eh/a0>
      0.000027149037

$$$$
